*Heading
** Job name: Job-1 Model name: Model-1
** Generated by: Abaqus/CAE 2020
*Preprint, echo=NO, model=NO, history=NO, contact=NO
**
** PARTS
**
*Part, name=Part-1
*Node
      1,           0.,           5.
      2,         -30.,           0.
      3,           0.,           0.
      4,         -15.,          20.
      5,         -30.,          20.
      6,          -1.,   4.83333349
      7,          -2.,   4.66666651
      8,          -3.,          4.5
      9,          -4.,   4.33333349
     10,          -5.,   4.16666651
     11,          -6.,           4.
     12,          -7.,   3.83333325
     13,          -8.,   3.66666675
     14,          -9.,          3.5
     15,         -10.,   3.33333325
     16,         -11.,   3.16666675
     17,         -12.,           3.
     18,         -13.,   2.83333325
     19,         -14.,   2.66666675
     20,         -15.,          2.5
** ... 538 like lines cut
*Element, type=CPE3
1,  34,   2,  35
2, 153,  21,  22
3, 197, 185, 193
88,   6,   1,  92
89, 357, 305, 340
90, 357, 330, 332
91, 362, 378, 363
92, 378, 370, 371
335, 547, 427, 546
336, 545, 556, 558
*Element, type=CPE4
 4, 148,   6,   7, 167
 5,  36,  33,  34,  35
 6,  37,  32,  33,  36
 7,  38,  31,  32,  37
 8,  39,  30,  31,  38
 9,  40,  29,  30,  39
10,  41,  28,  29,  40
11,  42,  27,  28,  41
12,  26, 201, 149,  25
13, 150,  44,  45, 151
14, 151,  45,  46, 152
15,  24, 150, 151,  23
16,  23, 151, 152,  22
17, 153,  22, 152, 195
18,  21, 153, 154,  20
19,  20, 154, 155,  19
20,  19, 155, 156,  18
21,  18, 156, 157,  17
22,  17, 157, 158,  16
23,  16, 158, 159,  15
** ... 485 like lines cut
*Nset, nset=_PickedSet6, internal
   1,   2,   4,   6,   7,   8,   9,  10,  11,  12,  13,  14,  15,  16,  17,  18
  19,  20,  21,  22,  23,  24,  25,  26,  27,  28,  29,  30,  31,  32,  33,  34
  68,  69,  70,  71,  72,  73,  74,  75,  76,  77,  78,  79,  80,  81,  82,  83
  84,  85,  86,  87,  88,  89,  90,  91,  92,  93,  94,  95,  96,  97,  98,  99
 100, 101, 102, 103, 104, 105, 106, 107, 108, 109, 110, 111, 112, 113, 114, 202
 203, 204, 205, 206, 207, 208, 209, 210, 211, 212, 213, 214, 215, 216, 217, 218
 219, 220, 221, 222, 223, 224, 225, 226, 227, 228, 229, 230, 231, 232, 233, 234
 235, 236, 237, 238, 239, 240, 241, 242, 243, 244, 245, 246, 247, 248, 249, 250
 251, 252, 253, 254, 255, 256, 257, 258, 259, 260, 261, 262, 263, 264, 265, 266
 267, 268, 269, 270, 271, 272, 273, 274, 275, 276, 277, 278, 279, 280, 281, 282
 283, 284, 285, 286, 287, 288, 289, 290, 291, 292, 293, 294, 295, 296, 297, 298
 299, 300, 301, 302, 303, 304, 305, 306, 307, 308, 309, 310, 311, 312, 313, 314
 315, 316, 317, 318, 319, 320, 321, 322, 323, 324, 325, 326, 327, 328, 329, 330
 331, 332, 333, 334, 335, 336, 337, 338, 339, 340, 341, 342, 343, 344, 345, 346
 347, 348, 349, 350, 351, 352, 353, 354, 355, 356, 357, 358, 359, 360, 361, 362
 363, 364, 365, 366, 367, 368, 369, 370, 371, 372, 373, 374, 375, 376, 377, 378
 379, 380, 381, 382, 383, 384, 385, 386, 387, 388, 389, 390, 391, 392, 393, 394
 395, 396, 397, 398, 399, 400, 401, 402, 403, 404, 405, 406, 407
*Elset, elset=_PickedSet6, internal, generate
  88,  334,    1
*Nset, nset=_PickedSet7, internal
   1,   2,   3,   4,   5,   6,   7,   8,   9,  10,  11,  12,  13,  14,  15,  16
  17,  18,  19,  20,  21,  22,  23,  24,  25,  26,  27,  28,  29,  30,  31,  32
  33,  34,  35,  36,  37,  38,  39,  40,  41,  42,  43,  44,  45,  46,  47,  48
  49,  50,  51,  52,  53,  54,  55,  56,  57,  58,  59,  60,  61,  62,  63,  64
  65,  66,  67,  68,  69,  70,  71,  72,  73,  74,  75,  76,  77,  78,  79,  80
  81,  82,  83,  84,  85,  86,  87,  88,  89,  90,  91, 115, 116, 117, 118, 119
 120, 121, 122, 123, 124, 125, 126, 127, 128, 129, 130, 131, 132, 133, 134, 135
 136, 137, 138, 139, 140, 141, 142, 143, 144, 145, 146, 147, 148, 149, 150, 151
 152, 153, 154, 155, 156, 157, 158, 159, 160, 161, 162, 163, 164, 165, 166, 167
 168, 169, 170, 171, 172, 173, 174, 175, 176, 177, 178, 179, 180, 181, 182, 183
 184, 185, 186, 187, 188, 189, 190, 191, 192, 193, 194, 195, 196, 197, 198, 199
 200, 201, 408, 409, 410, 411, 412, 413, 414, 415, 416, 417, 418, 419, 420, 421
 422, 423, 424, 425, 426, 427, 428, 429, 430, 431, 432, 433, 434, 435, 436, 437
 438, 439, 440, 441, 442, 443, 444, 445, 446, 447, 448, 449, 450, 451, 452, 453
 454, 455, 456, 457, 458, 459, 460, 461, 462, 463, 464, 465, 466, 467, 468, 469
 470, 471, 472, 473, 474, 475, 476, 477, 478, 479, 480, 481, 482, 483, 484, 485
 486, 487, 488, 489, 490, 491, 492, 493, 494, 495, 496, 497, 498, 499, 500, 501
 502, 503, 504, 505, 506, 507, 508, 509, 510, 511, 512, 513, 514, 515, 516, 517
 518, 519, 520, 521, 522, 523, 524, 525, 526, 527, 528, 529, 530, 531, 532, 533
 534, 535, 536, 537, 538, 539, 540, 541, 542, 543, 544, 545, 546, 547, 548, 549
 550, 551, 552, 553, 554, 555, 556, 557, 558
*Elset, elset=_PickedSet7, internal
   1,   2,   3,   4,   5,   6,   7,   8,   9,  10,  11,  12,  13,  14,  15,  16
  17,  18,  19,  20,  21,  22,  23,  24,  25,  26,  27,  28,  29,  30,  31,  32
  33,  34,  35,  36,  37,  38,  39,  40,  41,  42,  43,  44,  45,  46,  47,  48
  49,  50,  51,  52,  53,  54,  55,  56,  57,  58,  59,  60,  61,  62,  63,  64
  65,  66,  67,  68,  69,  70,  71,  72,  73,  74,  75,  76,  77,  78,  79,  80
  81,  82,  83,  84,  85,  86,  87, 335, 336, 337, 338, 339, 340, 341, 342, 343
 344, 345, 346, 347, 348, 349, 350, 351, 352, 353, 354, 355, 356, 357, 358, 359
 360, 361, 362, 363, 364, 365, 366, 367, 368, 369, 370, 371, 372, 373, 374, 375
 376, 377, 378, 379, 380, 381, 382, 383, 384, 385, 386, 387, 388, 389, 390, 391
 392, 393, 394, 395, 396, 397, 398, 399, 400, 401, 402, 403, 404, 405, 406, 407
 408, 409, 410, 411, 412, 413, 414, 415, 416, 417, 418, 419, 420, 421, 422, 423
 424, 425, 426, 427, 428, 429, 430, 431, 432, 433, 434, 435, 436, 437, 438, 439
 440, 441, 442, 443, 444, 445, 446, 447, 448, 449, 450, 451, 452, 453, 454, 455
 456, 457, 458, 459, 460, 461, 462, 463, 464, 465, 466, 467, 468, 469, 470, 471
 472, 473, 474, 475, 476, 477, 478, 479, 480, 481, 482, 483, 484, 485, 486, 487
 488, 489, 490, 491, 492, 493, 494, 495, 496, 497, 498, 499, 500, 501, 502, 503
 504, 505, 506, 507, 508, 509, 510, 511, 512, 513, 514, 515
** Section: Section-2
*Solid Section, elset=_PickedSet7, material=Material-2
,
** Section: Section-1
*Solid Section, elset=_PickedSet6, material=Material-1
,
*End Part
**  
**
** ASSEMBLY
**
*Assembly, name=Assembly
**  
*Instance, name=Part-1-1, part=Part-1
*End Instance
**  
*Instance, name=Part-1-2, part=Part-1
          0.,           5.,           0.
          0.,           5.,           0.,           0.,           5.,           1.,         180.
*End Instance
**  
*Nset, nset=Set-1, instance=Part-1-1
   1,   2,   4,   6,   7,   8,   9,  10,  11,  12,  13,  14,  15,  16,  17,  18
  19,  20,  21,  22,  23,  24,  25,  26,  27,  28,  29,  30,  31,  32,  33,  34
  68,  69,  70,  71,  72,  73,  74,  75,  76,  77,  78,  79,  80,  81,  82,  83
  84,  85,  86,  87,  88,  89,  90,  91,  92,  93,  94,  95,  96,  97,  98,  99
 100, 101, 102, 103, 104, 105, 106, 107, 108, 109, 110, 111, 112, 113, 114, 202
 203, 204, 205, 206, 207, 208, 209, 210, 211, 212, 213, 214, 215, 216, 217, 218
 219, 220, 221, 222, 223, 224, 225, 226, 227, 228, 229, 230, 231, 232, 233, 234
 235, 236, 237, 238, 239, 240, 241, 242, 243, 244, 245, 246, 247, 248, 249, 250
 251, 252, 253, 254, 255, 256, 257, 258, 259, 260, 261, 262, 263, 264, 265, 266
 267, 268, 269, 270, 271, 272, 273, 274, 275, 276, 277, 278, 279, 280, 281, 282
 283, 284, 285, 286, 287, 288, 289, 290, 291, 292, 293, 294, 295, 296, 297, 298
 299, 300, 301, 302, 303, 304, 305, 306, 307, 308, 309, 310, 311, 312, 313, 314
 315, 316, 317, 318, 319, 320, 321, 322, 323, 324, 325, 326, 327, 328, 329, 330
 331, 332, 333, 334, 335, 336, 337, 338, 339, 340, 341, 342, 343, 344, 345, 346
 347, 348, 349, 350, 351, 352, 353, 354, 355, 356, 357, 358, 359, 360, 361, 362
 363, 364, 365, 366, 367, 368, 369, 370, 371, 372, 373, 374, 375, 376, 377, 378
 379, 380, 381, 382, 383, 384, 385, 386, 387, 388, 389, 390, 391, 392, 393, 394
 395, 396, 397, 398, 399, 400, 401, 402, 403, 404, 405, 406, 407
*Elset, elset=Set-1, instance=Part-1-1, generate
  88,  334,    1
*Nset, nset=all, instance=Part-1-1, generate
   1,  558,    1
*Nset, nset=all, instance=Part-1-2, generate
   1,  558,    1
*Elset, elset=all, instance=Part-1-1, generate
   1,  515,    1
*Elset, elset=all, instance=Part-1-2, generate
   1,  515,    1
*Nset, nset=_PickedSet10, internal, instance=Part-1-2
   2,   5, 129, 130, 131, 132, 133, 134, 135, 136, 137, 138, 139, 140, 141, 142
 143, 144, 145, 146, 147
*Elset, elset=_PickedSet10, internal, instance=Part-1-2
 337, 348, 350, 354, 356, 361, 362, 372, 373, 376, 377, 378, 381, 382, 384, 385
 386, 397, 421, 430
*Nset, nset=_PickedSet11, internal, instance=Part-1-1
   2,   5, 129, 130, 131, 132, 133, 134, 135, 136, 137, 138, 139, 140, 141, 142
 143, 144, 145, 146, 147
*Elset, elset=_PickedSet11, internal, instance=Part-1-1
 337, 348, 350, 354, 356, 361, 362, 372, 373, 376, 377, 378, 381, 382, 384, 385
 386, 397, 421, 430
*Elset, elset=__PickedSurf6_S4, internal, instance=Part-1-1
 32, 50, 52
*Elset, elset=__PickedSurf6_S3, internal, instance=Part-1-1
 33,
*Elset, elset=__PickedSurf6_S1, internal, instance=Part-1-1
 49,
*Surface, type=ELEMENT, name=_PickedSurf6, internal
__PickedSurf6_S4, S4
__PickedSurf6_S3, S3
__PickedSurf6_S1, S1
*Elset, elset=__PickedSurf7_S4, internal, instance=Part-1-2
 32, 50, 52
*Elset, elset=__PickedSurf7_S3, internal, instance=Part-1-2
 33,
*Elset, elset=__PickedSurf7_S1, internal, instance=Part-1-2
 49,
*Surface, type=ELEMENT, name=_PickedSurf7, internal
__PickedSurf7_S4, S4
__PickedSurf7_S3, S3
__PickedSurf7_S1, S1
** Constraint: Constraint-1
*Tie, name=Constraint-1, adjust=yes
_PickedSurf7, _PickedSurf6
*End Assembly
** 
** MATERIALS
** 
*Material, name=Material-1
*Elastic
1000., 0.3
*Material, name=Material-2
*Elastic
2000., 0.3
** ----------------------------------------------------------------
** 
** STEP: Step-1
** 
*Step, name=Step-1, nlgeom=NO
*Static
1., 1., 1e-05, 1.
** 
** BOUNDARY CONDITIONS
** 
** Name: BC-1 Type: Symmetry/Antisymmetry/Encastre
*Boundary
_PickedSet10, PINNED
** Name: BC-2 Type: Displacement/Rotation
*Boundary
_PickedSet11, 1, 1, -1.
_PickedSet11, 2, 2
_PickedSet11, 6, 6
** 
** OUTPUT REQUESTS
** 
*Restart, write, frequency=0
** 
** FIELD OUTPUT: F-Output-2
** 
*Output, field
*Element Output, directions=YES
ENER, 
** 
** FIELD OUTPUT: F-Output-1
** 
*Output, field, variable=PRESELECT
** 
** HISTORY OUTPUT: H-Output-1
** 
*Output, history, variable=PRESELECT
*End Step
