*Heading
** Job name: CT_specimen_CPE4 Model name: CT_specimen
** Generated by: Abaqus/CAE 2020
*Preprint, echo=NO, model=NO, history=NO, contact=NO
**
** PARTS
**
*Part, name=CT_specimen
*End Part
**  
**
** ASSEMBLY
**
*Assembly, name=Assembly
**  
*Instance, name=CT_specimen-1, part=CT_specimen
*Node
      1,          -3.,           0.
      2,          -3.,          -3.
      3,           0.,          -3.
      4,           0.,           0.
      5,           3.,           0.
      6,           3.,          -3.
      7,         -27.,       -18.75
      8,         -24.,       -18.75
      9,         -24.,           0.
     10,         -27.,           0.
     11,         -27.,         -30.
     12,         -24.,         -30.
     13,         -24.,        18.75
     14,         -27.,        18.75
     15,         -24.,          30.
     16,         -27.,          30.
     17,           0.,           3.
     18,           3.,           3.
     19,          -3.,           3.
     20,          -9.,           0.
** ... 12705 like lines cut
*Element, type=CPE4
  1, 12671,    35,  1124, 12670
  2,    35,    36,  1125,  1124
  3,    36,    37,  1126,  1125
  4,    37,    38,  1127,  1126
  5,    38,    39,  1128,  1127
  6,    39,    40,  1129,  1128
  7,    40,    41,  1130,  1129
  8,    41,    42,  1131,  1130
  9,    42,    43,  1132,  1131
 10,    43,    44,  1133,  1132
 11,    44,    45,  1134,  1133
 12,    45,    46,  1135,  1134
 13,    46,    47,  1136,  1135
 14,    47,    48,  1137,  1136
 15,    48,    49,  1138,  1137
 16,    49,    50,  1139,  1138
 17,    50,    51,  1140,  1139
 18,    51,    52,  1141,  1140
 19,    52,    53,  1142,  1141
 20,    53,     2,    54,  1142
** ... 12520 like lines cut
*Nset, nset=_PickedSet3, internal
     7,     8,     9,    10,    11,    12,    13,    14,    15,    16,   168,   169,   170,   171,   172,   173
   174,   175,   176,   177,   178,   179,   180,   181,   182,   183,   184,   185,   186,   187,   188,   189
   190,   191,   192,   193,   194,   195,   196,   197,   198,   199,   200,   201,   202,   203,   204,   205
   206,   207,   208,   209,   210,   211,   212,   213,   214,   215,   216,   217,   218,   219,   220,   221
   222,   223,   224,   225,   226,   227,   228,   229,   230,   231,   232,   233,   234,   235,   236,   237
   238,   239,   240,   241,   242,   243,   244,   245,   246,   247,   248,   249,   250,   251,   252,   253
   254,   255,   256,   257,   258,   259,   260,   261,   262,   263,   264,   265,   266,   267,   268,   269
   270,   271,   272,   273,   274,   275,   276,   277,   278,   279,   280,   281,   282,   283,   284,   285
   286,   287,   288,   289,  1846,  1847,  1848,  1849,  1850,  1851,  1852,  1853,  1854,  1855,  1856,  1857
  1858,  1859,  1860,  1861,  1862,  1863,  1864,  1865,  1866,  1867,  1868,  1869,  1870,  1871,  1872,  1873
  1874,  1875,  1876,  1877,  1878,  1879,  1880,  1881,  1882,  1883,  1884,  1885,  1886,  1887,  1888,  1889
  1890,  1891,  1892,  1893,  1894,  1895,  1896,  1897,  1898,  1899,  1900,  1901,  1902,  1903,  1904,  1905
  1906,  1907,  1908,  1909,  1910,  1911,  1912,  1913,  1914,  1915,  1916,  1917,  1918,  1919,  1920,  1921
  1922,  1923,  1924,  1925,  1926,  1927,  1928,  1929,  1930,  1931,  1932,  1933,  1934,  1935,  1936,  1937
  1938,  1939,  1940,  1941,  1942,  1943,  1944,  1945,  1946,  1947,  1948,  1949,  1950,  1951,  1952,  1953
  1954,  1955,  1956,  1957, 12722, 12723, 12724, 12725
*Elset, elset=_PickedSet3, internal, generate
 801,  980,    1
*Nset, nset=_PickedSet4, internal
     1,     2,     3,     4,     5,     6,     8,     9,    12,    13,    15,    17,    18,    19,    20,    21
    22,    23,    24,    25,    26,    27,    28,    29,    30,    31,    32,    33,    34,    35,    36,    37
    38,    39,    40,    41,    42,    43,    44,    45,    46,    47,    48,    49,    50,    51,    52,    53
    54,    55,    56,    57,    58,    59,    60,    61,    62,    63,    64,    65,    66,    67,    68,    69
    70,    71,    72,    73,    74,    75,    76,    77,    78,    79,    80,    81,    82,    83,    84,    85
    86,    87,    88,    89,    90,    91,    92,    93,    94,    95,    96,    97,    98,    99,   100,   101
   102,   103,   104,   105,   106,   107,   108,   109,   110,   111,   112,   113,   114,   115,   116,   117
   118,   119,   120,   121,   122,   123,   124,   125,   126,   127,   128,   129,   130,   131,   132,   133
   134,   135,   136,   137,   138,   139,   140,   141,   142,   143,   144,   145,   146,   147,   148,   149
   150,   151,   152,   153,   154,   155,   156,   157,   158,   159,   160,   161,   162,   163,   164,   165
   166,   167,   170,   171,   172,   173,   174,   175,   176,   177,   178,   179,   180,   181,   182,   183
   184,   185,   186,   187,   220,   221,   222,   223,   224,   225,   226,   227,   228,   229,   250,   251
   252,   253,   254,   255,   256,   257,   258,   259,   260,   261,   262,   263,   264,   265,   266,   267
   268,   269,   270,   271,   272,   273,   274,   275,   276,   277,   290,   291,   292,   293,   294,   295
   296,   297,   298,   299,   300,   301,   302,   303,   304,   305,   306,   307,   308,   309,   310,   311
   312,   313,   314,   315,   316,   317,   318,   319,   320,   321,   322,   323,   324,   325,   326,   327
   328,   329,   330,   331,   332,   333,   334,   335,   336,   337,   338,   339,   340,   341,   342,   343
   344,   345,   346,   347,   348,   349,   350,   351,   352,   353,   354,   355,   356,   357,   358,   359
   360,   361,   362,   363,   364,   365,   366,   367,   368,   369,   370,   371,   372,   373,   374,   375
   376,   377,   378,   379,   380,   381,   382,   383,   384,   385,   386,   387,   388,   389,   390,   391
** ... 764 like lines cut
*Elset, elset=_PickedSet4, internal
     1,     2,     3,     4,     5,     6,     7,     8,     9,    10,    11,    12,    13,    14,    15,    16
    17,    18,    19,    20,    21,    22,    23,    24,    25,    26,    27,    28,    29,    30,    31,    32
    33,    34,    35,    36,    37,    38,    39,    40,    41,    42,    43,    44,    45,    46,    47,    48
    49,    50,    51,    52,    53,    54,    55,    56,    57,    58,    59,    60,    61,    62,    63,    64
    65,    66,    67,    68,    69,    70,    71,    72,    73,    74,    75,    76,    77,    78,    79,    80
    81,    82,    83,    84,    85,    86,    87,    88,    89,    90,    91,    92,    93,    94,    95,    96
    97,    98,    99,   100,   101,   102,   103,   104,   105,   106,   107,   108,   109,   110,   111,   112
   113,   114,   115,   116,   117,   118,   119,   120,   121,   122,   123,   124,   125,   126,   127,   128
   129,   130,   131,   132,   133,   134,   135,   136,   137,   138,   139,   140,   141,   142,   143,   144
   145,   146,   147,   148,   149,   150,   151,   152,   153,   154,   155,   156,   157,   158,   159,   160
   161,   162,   163,   164,   165,   166,   167,   168,   169,   170,   171,   172,   173,   174,   175,   176
   177,   178,   179,   180,   181,   182,   183,   184,   185,   186,   187,   188,   189,   190,   191,   192
   193,   194,   195,   196,   197,   198,   199,   200,   201,   202,   203,   204,   205,   206,   207,   208
   209,   210,   211,   212,   213,   214,   215,   216,   217,   218,   219,   220,   221,   222,   223,   224
   225,   226,   227,   228,   229,   230,   231,   232,   233,   234,   235,   236,   237,   238,   239,   240
   241,   242,   243,   244,   245,   246,   247,   248,   249,   250,   251,   252,   253,   254,   255,   256
   257,   258,   259,   260,   261,   262,   263,   264,   265,   266,   267,   268,   269,   270,   271,   272
   273,   274,   275,   276,   277,   278,   279,   280,   281,   282,   283,   284,   285,   286,   287,   288
   289,   290,   291,   292,   293,   294,   295,   296,   297,   298,   299,   300,   301,   302,   303,   304
   305,   306,   307,   308,   309,   310,   311,   312,   313,   314,   315,   316,   317,   318,   319,   320
** ... 753 like lines cut
** Section: sec_elastic
*Solid Section, elset=_PickedSet4, material=steel_elastic
25.,
** Section: sec_elastic
*Solid Section, elset=_PickedSet3, material=steel_elastic
25.,
*End Instance
**  
*Nset, nset=A, instance=CT_specimen-1
     1,     2,     3,     4,     5,     6,    17,    18,    19,    35,    36,    37,    38,    39,    40,    41
    42,    43,    44,    45,    46,    47,    48,    49,    50,    51,    52,    53,    54,    55,    56,    57
    58,    59,    60,    61,    62,    63,    64,    65,    66,    67,    68,    69,    70,    71,    72,    73
    74,    75,    76,    77,    78,    79,    80,    81,    82,    83,    84,    85,    86,    87,    88,    89
    90,    91,    92,    93,    94,    95,    96,    97,    98,    99,   100,   101,   102,   103,   104,   105
   106,   107,   108,   109,   110,   111,   112,   113,   114,   115,   116,   117,   118,   119,   120,   121
   122,   123,   124,   125,   126,   127,   128,   129,   130,   131,   132,   133,   134,   135,   136,   137
   138,   139,   140,   141,   142,   143,   144,   145,   146,   147,   148,   149,   150,   151,   152,   153
   154,   155,   156,   157,   158,   159,   160,   161,   162,   163,   164,   165,   166,   167,   290,   291
   292,   293,   294,   295,   296,   297,   298,   299,   300,   301,   302,   303,   304,   305,   306,   307
   308,   309,   310,   311,   312,   313,   314,   315,   316,   317,   318,   319,   320,   321,   322,   323
   324,   325,   326,   327,   328,   329,   330,   331,   332,   333,   334,   335,   336,   337,   338,   339
   340,   341,   342,   343,   344,   345,   346,   347,   348,   349,   350,   351,   352,   353,   354,   355
   356,   357,   358,   359,   360,   361,   362,   363,   364,   365,   366,   367,   368,   369,   370,   371
   372,   373,   374,   375,   376,   377,   378,   379,   380,   381,   382,   383,   384,  1124,  1125,  1126
  1127,  1128,  1129,  1130,  1131,  1132,  1133,  1134,  1135,  1136,  1137,  1138,  1139,  1140,  1141,  1142
  1143,  1144,  1145,  1146,  1147,  1148,  1149,  1150,  1151,  1152,  1153,  1154,  1155,  1156,  1157,  1158
  1159,  1160,  1161,  1162,  1163,  1164,  1165,  1166,  1167,  1168,  1169,  1170,  1171,  1172,  1173,  1174
  1175,  1176,  1177,  1178,  1179,  1180,  1181,  1182,  1183,  1184,  1185,  1186,  1187,  1188,  1189,  1190
  1191,  1192,  1193,  1194,  1195,  1196,  1197,  1198,  1199,  1200,  1201,  1202,  1203,  1204,  1205,  1206
** ... 87 like lines cut
*Elset, elset=A, instance=CT_specimen-1
    1,    2,    3,    4,    5,    6,    7,    8,    9,   10,   11,   12,   13,   14,   15,   16
   17,   18,   19,   20,   21,   22,   23,   24,   25,   26,   27,   28,   29,   30,   31,   32
   33,   34,   35,   36,   37,   38,   39,   40,   41,   42,   43,   44,   45,   46,   47,   48
   49,   50,   51,   52,   53,   54,   55,   56,   57,   58,   59,   60,   61,   62,   63,   64
   65,   66,   67,   68,   69,   70,   71,   72,   73,   74,   75,   76,   77,   78,   79,   80
   81,   82,   83,   84,   85,   86,   87,   88,   89,   90,   91,   92,   93,   94,   95,   96
   97,   98,   99,  100,  101,  102,  103,  104,  105,  106,  107,  108,  109,  110,  111,  112
  113,  114,  115,  116,  117,  118,  119,  120,  121,  122,  123,  124,  125,  126,  127,  128
  129,  130,  131,  132,  133,  134,  135,  136,  137,  138,  139,  140,  141,  142,  143,  144
  145,  146,  147,  148,  149,  150,  151,  152,  153,  154,  155,  156,  157,  158,  159,  160
  161,  162,  163,  164,  165,  166,  167,  168,  169,  170,  171,  172,  173,  174,  175,  176
  177,  178,  179,  180,  181,  182,  183,  184,  185,  186,  187,  188,  189,  190,  191,  192
  193,  194,  195,  196,  197,  198,  199,  200,  201,  202,  203,  204,  205,  206,  207,  208
  209,  210,  211,  212,  213,  214,  215,  216,  217,  218,  219,  220,  221,  222,  223,  224
  225,  226,  227,  228,  229,  230,  231,  232,  233,  234,  235,  236,  237,  238,  239,  240
  241,  242,  243,  244,  245,  246,  247,  248,  249,  250,  251,  252,  253,  254,  255,  256
  257,  258,  259,  260,  261,  262,  263,  264,  265,  266,  267,  268,  269,  270,  271,  272
  273,  274,  275,  276,  277,  278,  279,  280,  281,  282,  283,  284,  285,  286,  287,  288
  289,  290,  291,  292,  293,  294,  295,  296,  297,  298,  299,  300,  301,  302,  303,  304
  305,  306,  307,  308,  309,  310,  311,  312,  313,  314,  315,  316,  317,  318,  319,  320
** ... 80 like lines cut
*Nset, nset=B, instance=CT_specimen-1
     1,     2,     3,     4,     5,     6,    17,    18,    19,    20,    21,    22,    23,    33,    34,    35
    36,    37,    38,    39,    40,    41,    42,    43,    44,    45,    46,    47,    48,    49,    50,    51
    52,    53,    54,    55,    56,    57,    58,    59,    60,    61,    62,    63,    64,    65,    66,    67
    68,    69,    70,    71,    72,    73,    74,    75,    76,    77,    78,    79,    80,    81,    82,    83
    84,    85,    86,    87,    88,    89,    90,    91,    92,    93,    94,    95,    96,    97,    98,    99
   100,   101,   102,   103,   104,   105,   106,   107,   108,   109,   110,   111,   112,   113,   114,   115
   116,   117,   118,   119,   120,   121,   122,   123,   124,   125,   126,   127,   128,   129,   130,   131
   132,   133,   134,   135,   136,   137,   138,   139,   140,   141,   142,   143,   144,   145,   146,   147
   148,   149,   150,   151,   152,   153,   154,   155,   156,   157,   158,   159,   160,   161,   162,   163
   164,   165,   166,   167,   290,   291,   292,   293,   294,   295,   296,   297,   298,   299,   300,   301
   302,   303,   304,   305,   306,   307,   308,   309,   310,   311,   312,   313,   314,   315,   316,   317
   318,   319,   320,   321,   322,   323,   324,   325,   326,   327,   328,   329,   330,   331,   332,   333
   334,   335,   336,   337,   338,   339,   340,   341,   342,   343,   344,   345,   346,   347,   348,   349
   350,   351,   352,   353,   354,   355,   356,   357,   358,   359,   360,   361,   362,   363,   364,   365
   366,   367,   368,   369,   370,   371,   372,   373,   374,   375,   376,   377,   378,   379,   380,   381
   382,   383,   384,   385,   386,   387,   388,   389,   390,   391,   392,   393,   394,   395,   396,   397
   398,   399,   400,   401,   402,   403,   404,   405,   406,   407,   408,   409,   410,   411,   412,   413
   414,   415,   416,   417,   418,   419,   420,   421,   422,   423,   424,   425,   426,   427,   428,   429
   430,   431,   432,   433,   434,   435,   436,   437,   438,   439,   440,   441,   442,   443,   444,   445
   446,   447,   448,   449,   450,   451,   452,   453,   454,   455,   456,   457,   458,   459,   460,   461
** ... 449 like lines cut
*Elset, elset=B, instance=CT_specimen-1
    1,    2,    3,    4,    5,    6,    7,    8,    9,   10,   11,   12,   13,   14,   15,   16
   17,   18,   19,   20,   21,   22,   23,   24,   25,   26,   27,   28,   29,   30,   31,   32
   33,   34,   35,   36,   37,   38,   39,   40,   41,   42,   43,   44,   45,   46,   47,   48
   49,   50,   51,   52,   53,   54,   55,   56,   57,   58,   59,   60,   61,   62,   63,   64
   65,   66,   67,   68,   69,   70,   71,   72,   73,   74,   75,   76,   77,   78,   79,   80
   81,   82,   83,   84,   85,   86,   87,   88,   89,   90,   91,   92,   93,   94,   95,   96
   97,   98,   99,  100,  101,  102,  103,  104,  105,  106,  107,  108,  109,  110,  111,  112
  113,  114,  115,  116,  117,  118,  119,  120,  121,  122,  123,  124,  125,  126,  127,  128
  129,  130,  131,  132,  133,  134,  135,  136,  137,  138,  139,  140,  141,  142,  143,  144
  145,  146,  147,  148,  149,  150,  151,  152,  153,  154,  155,  156,  157,  158,  159,  160
  161,  162,  163,  164,  165,  166,  167,  168,  169,  170,  171,  172,  173,  174,  175,  176
  177,  178,  179,  180,  181,  182,  183,  184,  185,  186,  187,  188,  189,  190,  191,  192
  193,  194,  195,  196,  197,  198,  199,  200,  201,  202,  203,  204,  205,  206,  207,  208
  209,  210,  211,  212,  213,  214,  215,  216,  217,  218,  219,  220,  221,  222,  223,  224
  225,  226,  227,  228,  229,  230,  231,  232,  233,  234,  235,  236,  237,  238,  239,  240
  241,  242,  243,  244,  245,  246,  247,  248,  249,  250,  251,  252,  253,  254,  255,  256
  257,  258,  259,  260,  261,  262,  263,  264,  265,  266,  267,  268,  269,  270,  271,  272
  273,  274,  275,  276,  277,  278,  279,  280,  281,  282,  283,  284,  285,  286,  287,  288
  289,  290,  291,  292,  293,  294,  295,  296,  297,  298,  299,  300,  301,  302,  303,  304
  305,  306,  307,  308,  309,  310,  311,  312,  313,  314,  315,  316,  317,  318,  319,  320
** ... 440 like lines cut
*Nset, nset=C, instance=CT_specimen-1
     1,     2,     3,     4,     5,     6,     8,     9,    12,    13,    15,    17,    18,    19,    20,    21
    22,    23,    24,    25,    26,    27,    28,    29,    30,    31,    32,    33,    34,    35,    36,    37
    38,    39,    40,    41,    42,    43,    44,    45,    46,    47,    48,    49,    50,    51,    52,    53
    54,    55,    56,    57,    58,    59,    60,    61,    62,    63,    64,    65,    66,    67,    68,    69
    70,    71,    72,    73,    74,    75,    76,    77,    78,    79,    80,    81,    82,    83,    84,    85
    86,    87,    88,    89,    90,    91,    92,    93,    94,    95,    96,    97,    98,    99,   100,   101
   102,   103,   104,   105,   106,   107,   108,   109,   110,   111,   112,   113,   114,   115,   116,   117
   118,   119,   120,   121,   122,   123,   124,   125,   126,   127,   128,   129,   130,   131,   132,   133
   134,   135,   136,   137,   138,   139,   140,   141,   142,   143,   144,   145,   146,   147,   148,   149
   150,   151,   152,   153,   154,   155,   156,   157,   158,   159,   160,   161,   162,   163,   164,   165
   166,   167,   170,   171,   172,   173,   174,   175,   176,   177,   178,   179,   180,   181,   182,   183
   184,   185,   186,   187,   220,   221,   222,   223,   224,   225,   226,   227,   228,   229,   250,   251
   252,   253,   254,   255,   256,   257,   258,   259,   260,   261,   262,   263,   264,   265,   266,   267
   268,   269,   270,   271,   272,   273,   274,   275,   276,   277,   290,   291,   292,   293,   294,   295
   296,   297,   298,   299,   300,   301,   302,   303,   304,   305,   306,   307,   308,   309,   310,   311
   312,   313,   314,   315,   316,   317,   318,   319,   320,   321,   322,   323,   324,   325,   326,   327
   328,   329,   330,   331,   332,   333,   334,   335,   336,   337,   338,   339,   340,   341,   342,   343
   344,   345,   346,   347,   348,   349,   350,   351,   352,   353,   354,   355,   356,   357,   358,   359
   360,   361,   362,   363,   364,   365,   366,   367,   368,   369,   370,   371,   372,   373,   374,   375
   376,   377,   378,   379,   380,   381,   382,   383,   384,   385,   386,   387,   388,   389,   390,   391
** ... 764 like lines cut
*Elset, elset=C, instance=CT_specimen-1
     1,     2,     3,     4,     5,     6,     7,     8,     9,    10,    11,    12,    13,    14,    15,    16
    17,    18,    19,    20,    21,    22,    23,    24,    25,    26,    27,    28,    29,    30,    31,    32
    33,    34,    35,    36,    37,    38,    39,    40,    41,    42,    43,    44,    45,    46,    47,    48
    49,    50,    51,    52,    53,    54,    55,    56,    57,    58,    59,    60,    61,    62,    63,    64
    65,    66,    67,    68,    69,    70,    71,    72,    73,    74,    75,    76,    77,    78,    79,    80
    81,    82,    83,    84,    85,    86,    87,    88,    89,    90,    91,    92,    93,    94,    95,    96
    97,    98,    99,   100,   101,   102,   103,   104,   105,   106,   107,   108,   109,   110,   111,   112
   113,   114,   115,   116,   117,   118,   119,   120,   121,   122,   123,   124,   125,   126,   127,   128
   129,   130,   131,   132,   133,   134,   135,   136,   137,   138,   139,   140,   141,   142,   143,   144
   145,   146,   147,   148,   149,   150,   151,   152,   153,   154,   155,   156,   157,   158,   159,   160
   161,   162,   163,   164,   165,   166,   167,   168,   169,   170,   171,   172,   173,   174,   175,   176
   177,   178,   179,   180,   181,   182,   183,   184,   185,   186,   187,   188,   189,   190,   191,   192
   193,   194,   195,   196,   197,   198,   199,   200,   201,   202,   203,   204,   205,   206,   207,   208
   209,   210,   211,   212,   213,   214,   215,   216,   217,   218,   219,   220,   221,   222,   223,   224
   225,   226,   227,   228,   229,   230,   231,   232,   233,   234,   235,   236,   237,   238,   239,   240
   241,   242,   243,   244,   245,   246,   247,   248,   249,   250,   251,   252,   253,   254,   255,   256
   257,   258,   259,   260,   261,   262,   263,   264,   265,   266,   267,   268,   269,   270,   271,   272
   273,   274,   275,   276,   277,   278,   279,   280,   281,   282,   283,   284,   285,   286,   287,   288
   289,   290,   291,   292,   293,   294,   295,   296,   297,   298,   299,   300,   301,   302,   303,   304
   305,   306,   307,   308,   309,   310,   311,   312,   313,   314,   315,   316,   317,   318,   319,   320
** ... 753 like lines cut
*Nset, nset=J_far, instance=CT_specimen-1
     1,     2,     3,     4,     5,     6,    17,    18,    19,    20,    21,    22,    23,    26,    27,    28
    29,    31,    32,    33,    34,    35,    36,    37,    38,    39,    40,    41,    42,    43,    44,    45
    46,    47,    48,    49,    50,    51,    52,    53,    54,    55,    56,    57,    58,    59,    60,    61
    62,    63,    64,    65,    66,    67,    68,    69,    70,    71,    72,    73,    74,    75,    76,    77
    78,    79,    80,    81,    82,    83,    84,    85,    86,    87,    88,    89,    90,    91,    92,    93
    94,    95,    96,    97,    98,    99,   100,   101,   102,   103,   104,   105,   106,   107,   108,   109
   110,   111,   112,   113,   114,   115,   116,   117,   118,   119,   120,   121,   122,   123,   124,   125
   126,   127,   128,   129,   130,   131,   132,   133,   134,   135,   136,   137,   138,   139,   140,   141
   142,   143,   144,   145,   146,   147,   148,   149,   150,   151,   152,   153,   154,   155,   156,   157
   158,   159,   160,   161,   162,   163,   164,   165,   166,   167,   290,   291,   292,   293,   294,   295
   296,   297,   298,   299,   300,   301,   302,   303,   304,   305,   306,   307,   308,   309,   310,   311
   312,   313,   314,   315,   316,   317,   318,   319,   320,   321,   322,   323,   324,   325,   326,   327
   328,   329,   330,   331,   332,   333,   334,   335,   336,   337,   338,   339,   340,   341,   342,   343
   344,   345,   346,   347,   348,   349,   350,   351,   352,   353,   354,   355,   356,   357,   358,   359
   360,   361,   362,   363,   364,   365,   366,   367,   368,   369,   370,   371,   372,   373,   374,   375
   376,   377,   378,   379,   380,   381,   382,   383,   384,   385,   386,   387,   388,   389,   390,   391
   392,   393,   394,   395,   396,   397,   398,   399,   400,   401,   402,   403,   404,   405,   406,   407
   408,   409,   410,   411,   412,   413,   414,   415,   416,   417,   418,   419,   420,   421,   422,   423
   424,   425,   426,   427,   428,   429,   430,   431,   432,   433,   434,   435,   436,   437,   438,   439
   440,   441,   442,   443,   444,   445,   446,   447,   448,   449,   450,   451,   452,   453,   454,   455
** ... 751 like lines cut
*Elset, elset=J_far, instance=CT_specimen-1
     1,     2,     3,     4,     5,     6,     7,     8,     9,    10,    11,    12,    13,    14,    15,    16
    17,    18,    19,    20,    21,    22,    23,    24,    25,    26,    27,    28,    29,    30,    31,    32
    33,    34,    35,    36,    37,    38,    39,    40,    41,    42,    43,    44,    45,    46,    47,    48
    49,    50,    51,    52,    53,    54,    55,    56,    57,    58,    59,    60,    61,    62,    63,    64
    65,    66,    67,    68,    69,    70,    71,    72,    73,    74,    75,    76,    77,    78,    79,    80
    81,    82,    83,    84,    85,    86,    87,    88,    89,    90,    91,    92,    93,    94,    95,    96
    97,    98,    99,   100,   101,   102,   103,   104,   105,   106,   107,   108,   109,   110,   111,   112
   113,   114,   115,   116,   117,   118,   119,   120,   121,   122,   123,   124,   125,   126,   127,   128
   129,   130,   131,   132,   133,   134,   135,   136,   137,   138,   139,   140,   141,   142,   143,   144
   145,   146,   147,   148,   149,   150,   151,   152,   153,   154,   155,   156,   157,   158,   159,   160
   161,   162,   163,   164,   165,   166,   167,   168,   169,   170,   171,   172,   173,   174,   175,   176
   177,   178,   179,   180,   181,   182,   183,   184,   185,   186,   187,   188,   189,   190,   191,   192
   193,   194,   195,   196,   197,   198,   199,   200,   201,   202,   203,   204,   205,   206,   207,   208
   209,   210,   211,   212,   213,   214,   215,   216,   217,   218,   219,   220,   221,   222,   223,   224
   225,   226,   227,   228,   229,   230,   231,   232,   233,   234,   235,   236,   237,   238,   239,   240
   241,   242,   243,   244,   245,   246,   247,   248,   249,   250,   251,   252,   253,   254,   255,   256
   257,   258,   259,   260,   261,   262,   263,   264,   265,   266,   267,   268,   269,   270,   271,   272
   273,   274,   275,   276,   277,   278,   279,   280,   281,   282,   283,   284,   285,   286,   287,   288
   289,   290,   291,   292,   293,   294,   295,   296,   297,   298,   299,   300,   301,   302,   303,   304
   305,   306,   307,   308,   309,   310,   311,   312,   313,   314,   315,   316,   317,   318,   319,   320
** ... 740 like lines cut
*Nset, nset=constraints, instance=CT_specimen-1
  7, 14
*Nset, nset=_PickedSet4, internal, instance=CT_specimen-1
 7,
*Nset, nset=_PickedSet5, internal, instance=CT_specimen-1
 14,
*Nset, nset=_PickedSet28, internal, instance=CT_specimen-1
 4,
*Nset, nset=_PickedSet29, internal, instance=CT_specimen-1
 4,
*Nset, nset=_PickedSet42, internal, instance=CT_specimen-1
     1,     2,     3,     4,     5,     6,    17,    18,    19,    20,    21,    22,    23,    26,    27,    28
    29,    31,    32,    33,    34,    35,    36,    37,    38,    39,    40,    41,    42,    43,    44,    45
    46,    47,    48,    49,    50,    51,    52,    53,    54,    55,    56,    57,    58,    59,    60,    61
    62,    63,    64,    65,    66,    67,    68,    69,    70,    71,    72,    73,    74,    75,    76,    77
    78,    79,    80,    81,    82,    83,    84,    85,    86,    87,    88,    89,    90,    91,    92,    93
    94,    95,    96,    97,    98,    99,   100,   101,   102,   103,   104,   105,   106,   107,   108,   109
   110,   111,   112,   113,   114,   115,   116,   117,   118,   119,   120,   121,   122,   123,   124,   125
   126,   127,   128,   129,   130,   131,   132,   133,   134,   135,   136,   137,   138,   139,   140,   141
   142,   143,   144,   145,   146,   147,   148,   149,   150,   151,   152,   153,   154,   155,   156,   157
   158,   159,   160,   161,   162,   163,   164,   165,   166,   167,   290,   291,   292,   293,   294,   295
   296,   297,   298,   299,   300,   301,   302,   303,   304,   305,   306,   307,   308,   309,   310,   311
   312,   313,   314,   315,   316,   317,   318,   319,   320,   321,   322,   323,   324,   325,   326,   327
   328,   329,   330,   331,   332,   333,   334,   335,   336,   337,   338,   339,   340,   341,   342,   343
   344,   345,   346,   347,   348,   349,   350,   351,   352,   353,   354,   355,   356,   357,   358,   359
   360,   361,   362,   363,   364,   365,   366,   367,   368,   369,   370,   371,   372,   373,   374,   375
   376,   377,   378,   379,   380,   381,   382,   383,   384,   385,   386,   387,   388,   389,   390,   391
   392,   393,   394,   395,   396,   397,   398,   399,   400,   401,   402,   403,   404,   405,   406,   407
   408,   409,   410,   411,   412,   413,   414,   415,   416,   417,   418,   419,   420,   421,   422,   423
   424,   425,   426,   427,   428,   429,   430,   431,   432,   433,   434,   435,   436,   437,   438,   439
   440,   441,   442,   443,   444,   445,   446,   447,   448,   449,   450,   451,   452,   453,   454,   455
** ... 751 like lines cut
*Elset, elset=_PickedSet42, internal, instance=CT_specimen-1
     1,     2,     3,     4,     5,     6,     7,     8,     9,    10,    11,    12,    13,    14,    15,    16
    17,    18,    19,    20,    21,    22,    23,    24,    25,    26,    27,    28,    29,    30,    31,    32
    33,    34,    35,    36,    37,    38,    39,    40,    41,    42,    43,    44,    45,    46,    47,    48
    49,    50,    51,    52,    53,    54,    55,    56,    57,    58,    59,    60,    61,    62,    63,    64
    65,    66,    67,    68,    69,    70,    71,    72,    73,    74,    75,    76,    77,    78,    79,    80
    81,    82,    83,    84,    85,    86,    87,    88,    89,    90,    91,    92,    93,    94,    95,    96
    97,    98,    99,   100,   101,   102,   103,   104,   105,   106,   107,   108,   109,   110,   111,   112
   113,   114,   115,   116,   117,   118,   119,   120,   121,   122,   123,   124,   125,   126,   127,   128
   129,   130,   131,   132,   133,   134,   135,   136,   137,   138,   139,   140,   141,   142,   143,   144
   145,   146,   147,   148,   149,   150,   151,   152,   153,   154,   155,   156,   157,   158,   159,   160
   161,   162,   163,   164,   165,   166,   167,   168,   169,   170,   171,   172,   173,   174,   175,   176
   177,   178,   179,   180,   181,   182,   183,   184,   185,   186,   187,   188,   189,   190,   191,   192
   193,   194,   195,   196,   197,   198,   199,   200,   201,   202,   203,   204,   205,   206,   207,   208
   209,   210,   211,   212,   213,   214,   215,   216,   217,   218,   219,   220,   221,   222,   223,   224
   225,   226,   227,   228,   229,   230,   231,   232,   233,   234,   235,   236,   237,   238,   239,   240
   241,   242,   243,   244,   245,   246,   247,   248,   249,   250,   251,   252,   253,   254,   255,   256
   257,   258,   259,   260,   261,   262,   263,   264,   265,   266,   267,   268,   269,   270,   271,   272
   273,   274,   275,   276,   277,   278,   279,   280,   281,   282,   283,   284,   285,   286,   287,   288
   289,   290,   291,   292,   293,   294,   295,   296,   297,   298,   299,   300,   301,   302,   303,   304
   305,   306,   307,   308,   309,   310,   311,   312,   313,   314,   315,   316,   317,   318,   319,   320
** ... 740 like lines cut
*Nset, nset=_PickedSet43, internal, instance=CT_specimen-1
 4,
*End Assembly
** 
** MATERIALS
** 
*Material, name=steel_elastic
*Elastic
200000., 0.3
** 
** BOUNDARY CONDITIONS
** 
** Name: fix Type: Displacement/Rotation
*Boundary
_PickedSet4, 1, 1
_PickedSet4, 2, 2
_PickedSet4, 6, 6
** ----------------------------------------------------------------
** 
** STEP: Loading
** 
*Step, name=Loading, nlgeom=YES
*Static
1., 1., 1e-05, 1.
** 
** BOUNDARY CONDITIONS
** 
** Name: Load Type: Displacement/Rotation
*Boundary
_PickedSet5, 2, 2, 0.5
** 
** OUTPUT REQUESTS
** 
*Restart, write, frequency=0
** 
** FIELD OUTPUT: F-Output-1
** 
*Output, field, time interval=1.
*Node Output
CF, RF, U
*Element Output, directions=YES
ENER, LE, PE, PEEQ, PEMAG, S
** 
** HISTORY OUTPUT: H-Output-4
** 
*Output, history
*Node Output, nset=constraints
RF1, RF2, RF3, RM1, RM2, RM3
** 
** HISTORY OUTPUT: H-Output-1
** 
*Output, history, variable=PRESELECT
** 
** HISTORY OUTPUT: J_abq
** 
*Contour Integral, crack name=J_abq_J_abq, contours=30, crack tip nodes
_PickedSet28, _PickedSet29, 1., 0., 0.
** 
** HISTORY OUTPUT: J_abq_far
** 
*Contour Integral, crack name=J_abq_far_J_abq_far, contours=1, crack tip nodes
_PickedSet42, _PickedSet43, 1., 0., 0.
*End Step
